src/test/resources/ieeefiles/shenzhenIEEE.dat
 09/09/06                      100.0  2006 3            1157788270312_711
BUS DATA FOLLOWS                    522 ITEMS
   1 cn_200807    1 1   2  1.0   0.     0.       0.        0.      0.       230.0   0.    99900.0 -99900.00.      0.       0   
   2 ¿û³åÕ¾(957,6 1 1   0  .958480.     -1.183600.2033     0.      0.       38.0    0.    0.      0.      0.      0.       0   
   3 ´´ÐÂÕ¾(994,1 1 1   0  .974280.     55.1774  23.5634   0.      0.       10.5    0.    0.      0.      .24000000.       0   
   4 ÂèÍå³§N00Y   1 1   2  1.0   0.     0.       0.        214.981740.9574  22.0    0.    99900.0 -99900.00.      0.       0   
   5 Bus_6        1 1   0  1.0   0.     0.       0.        0.      0.       0.      0.    0.      0.      0.      0.       0   
   6 Bus_7        1 1   0  1.0   0.     0.       0.        0.      0.       0.      0.    0.      0.      0.      0.       0   
   7 ¿Æ¼¼Ô°Õ¾(102 1 1   0  1.03740.     0.       0.        0.      0.       115.0   0.    0.      0.      0.      0.       0   
   8 Bus_9        1 1   0  1.0   0.     0.       0.        0.      0.       0.      0.    0.      0.      0.      0.       0   
   9 ÂèÍå³§N01K   1 1   2  1.0   0.     0.       0.        218.361638.2555  22.0    0.    99900.0 -99900.00.      0.       0   
  10 cn_200639    1 1   2  1.0   0.     0.       0.        925.0215276.8717 230.0   0.    99900.0 -99900.00.      0.       0   
  11 ÇåË®ºÓÕ¾10KV 1 1   0  .986850.     28.8496  8.0677    0.      0.       10.5    0.    0.      0.      .96191990.       0   
  12 ½øÆÒÕ¾N00P   1 1   2  1.0   0.     0.       0.        0.      0.       230.0   0.    99900.0 -99900.00.      0.       0   
  13 ´º·çÕ¾(1003, 1 1   0  .978850.     21.7561  2.442     0.      0.       10.5    0.    0.      0.      0.0960000.       0   
  14 »Ê¸ÚÕ¾(590,6 1 1   0  .997890.     0.       0.        0.      0.       115.0   0.    0.      0.      0.      0.       0   
  15 Íõ¼ÒÕ¾(499,1 1 1   0  .994180.     0.       0.        0.      0.       115.0   0.    0.      0.      0.      0.       0   
  16 ¿û³åÕ¾(469,2 1 1   0  .992060.     0.       0.        0.      0.       115.0   0.    0.      0.      0.      0.       0   
  17 Ïã¸ÛÕ¾(406,3 1 1   0  1.0   0.     0.       0.        0.      0.       115.0   0.    0.      0.      0.      0.       0   
  18 Bus_20       1 1   0  1.0   0.     0.       0.        0.      0.       0.      0.    0.      0.      0.      0.       0   
  19 ÇåË®ºÓÕ¾(801 1 1   0  .980240.     0.       0.        0.      0.       115.0   0.    0.      0.      0.      0.       0   
  20 Î÷ÏçÕ¾(151,1 1 1   0  1.01810.     0.       0.        0.      0.       230.0   0.    0.      0.      0.      0.       0   
  21 ÁúÌÁÕ¾(1091, 1 1   0  1.0   0.     0.       0.        0.      0.       10.5    0.    0.      0.      0.      0.       0   
  22 ÖÐº½Õ¾10KV3B 1 1   0  .990850.     41.7519  .2604999990.      0.       10.5    0.    0.      0.      .72143990.       0   
  23 Bus_25       1 1   0  1.0   0.     0.       0.        0.      0.       0.      0.    0.      0.      0.      0.       0   
  24 »Ê¸ÚÕ¾(1142, 1 1   0  .995420.     16.8773994.917799990.      0.       10.5    0.    0.      0.      .32063990.       0   
  25 ´ó¸»Õ¾10KV1M 1 1   0  .993370.     42.85980034.6357   0.      0.       10.5    0.    0.      0.      .30060000.       0   
  26 ÂèÍå³§N00F   1 1   2  1.0   0.     0.       0.        225.949437.7911  22.0    0.    99900.0 -99900.00.      0.       0   
  27 Åô³ÇÕ¾(671,1 1 1   0  .984420.     0.       0.        0.      0.       34.5    0.    0.      0.      -0.149990.       0   
  28 virtualPv_½­ 1 1   2  1.0   0.     0.       0.        0.      0.       525.0   0.    99900.0 -99900.00.      0.       0   
  29 Bus_31       1 1   0  1.0   0.     0.       0.        0.      0.       0.      0.    0.      0.      0.      0.       0   
  30 ´óÅôÕ¾(790,2 1 1   0  1.00990.     0.       0.        0.      0.       115.0   0.    0.      0.      0.      0.       0   
  31 cn_200178    1 1   2  1.0   0.     0.       0.        -188.586-26.2284 230.0   0.    99900.0 -99900.00.      0.       0   
  32 Bus_35       1 1   0  1.0   0.     0.       0.        0.      0.       0.      0.    0.      0.      0.      0.       0   
  33 »Ê¸ÚÕ¾(993,1 1 1   0  1.0   0.     0.       0.        0.      0.       10.5    0.    0.      0.      0.      0.       0   
  34 ¹ðÃíÕ¾(280,6 1 1   0  1.00450.     41.9302  18.6082   0.      0.       10.5    0.    0.      0.      .3      0.       0   
  35 Bus_38       1 1   0  1.0   0.     0.       0.        0.      0.       0.      0.    0.      0.      0.      0.       0   
  36 Bus_39       1 1   0  1.0   0.     0.       0.        0.      0.       0.      0.    0.      0.      0.      0.       0   
  37 ÆºÉ½Õ¾(461,2 1 1   0  .998600.     9.9999999-7.3141   0.      0.       230.0   0.    0.      0.      0.      0.       0   
  38 Ý¸³ÇÕ¾N00R   1 1   0  1.0   0.     0.0062000.9263     0.      0.       34.5    0.    0.      0.      0.      0.       0   
  39 »ÝÖÝÕ¾N00M   1 1   0  1.0   0.     -3508.901539.2866  0.      0.       525.0   0.    0.      0.      0.      0.       0   
  40 Bus_43       1 1   0  1.0   0.     0.       0.        0.      0.       0.      0.    0.      0.      0.      0.       0   
  41 ÏéºÍÕ¾(413,5 1 1   0  .970020.     0.       0.        0.      0.       115.0   0.    0.      0.      0.      0.       0   
  42 Bus_45       1 1   0  1.0   0.     0.       0.        0.      0.       0.      0.    0.      0.      0.      0.       0   
  43 Bus_46       1 1   0  1.0   0.     0.       0.        0.      0.       0.      0.    0.      0.      0.      0.       0   
  44 ÁúÌÁÕ¾(982,2 1 1   0  1.0   0.     0.       0.        0.      0.       10.5    0.    0.      0.      0.      0.       0   
  45 »Ê¸ÚÕ¾(334,2 1 1   0  1.0   0.     0.       0.        0.      0.       230.0   0.    0.      0.      0.      0.       0   
  46 Bus_49       1 1   0  1.0   0.     0.       0.        0.      0.       0.      0.    0.      0.      0.      0.       0   
  47 Ý¸³ÇÕ¾N01J   1 1   0  1.0   0.     -0.0073  -0.0022   0.      0.       230.0   0.    0.      0.      0.      0.       0   
  48 Ëñ¸ÚÕ¾(596,4 1 1   0  .981150.     35.14059913.63740000.      0.       10.5    0.    0.      0.      .3      0.       0   
  49 ÉîÛÚÕ¾35KV3M 1 1   0  .967820.     0.       0.        0.      0.       34.5    0.    0.      0.      -0.149990.       0   
  50 Å©¿ÆÕ¾(556,4 1 1   0  .969020.     27.78749911.1038   0.      0.       10.5    0.    0.      0.      .16     0.       0   
  51 »Æ±´ÁëÕ¾10KV 1 1   0  .977140.     40.74489915.74429990.      0.       10.5    0.    0.      0.      .3      0.       0   
  52 ±õºÓÕ¾(347,4 1 1   0  .980340.     0.       0.        0.      0.       115.0   0.    0.      0.      0.      0.       0   
  53 cn_200114    1 1   2  1.0   0.     0.       0.        5173.673429.9536 525.0   0.    99900.0 -99900.00.      0.       0   
  54 Bus_59       1 1   0  1.0   0.     0.       0.        0.      0.       0.      0.    0.      0.      0.      0.       0   
  55 º½³ÇÕ¾(250,6 1 1   0  .958280.     136.188  49.55590000.      0.       10.5    0.    0.      0.      .39999990.       0   
  56 Áú»ªÕ¾(943,1 1 1   0  .971360.     93.80430011.5109   0.      0.       10.5    0.    0.      0.      .23999990.       0   
  57 ´º·çÕ¾(240,1 1 1   0  .971060.     0.       0.        0.      0.       115.0   0.    0.      0.      0.      0.       0   
  58 ÉÏ²½Õ¾(966,3 1 1   0  1.00770.     0.       0.        0.      0.       115.0   0.    0.      0.      0.      0.       0   
  59 virtualPv_¾° 1 1   2  1.0   0.     0.       0.        0.      0.       230.0   0.    99900.0 -99900.00.      0.       0   
  60 ºìÁëÕ¾(1030, 1 1   0  .973250.     16.9015  6.421     0.      0.       10.5    0.    0.      0.      0.0960000.       0   
  61 virtualPv_Ïã 1 1   2  1.0   0.     0.       0.        0.      0.       525.0   0.    99900.0 -99900.00.      0.       0   
  62 Á¢ÐÂÕ¾G010   1 1   0  1.0   0.     74.0909  14.3823   0.      0.       230.0   0.    0.      0.      0.      0.       0   
  63 Bus_69       1 1   0  1.0   0.     0.       0.        0.      0.       0.      0.    0.      0.      0.      0.       0   
  64 virtualPv_Öé 1 1   2  1.0   0.     0.       0.        0.      0.       230.0   0.    99900.0 -99900.00.      0.       0   
  65 Ã·ÁÖÕ¾(1012, 1 1   0  1.0   0.     0.       0.        0.      0.       10.5    0.    0.      0.      0.      0.       0   
  66 ºóº£Õ¾(977,2 1 1   0  1.00330.     10.7864  -6.5878   0.      0.       10.5    0.    0.      0.      .20016000.       0   
  67 Ê¯ÏÃÕ¾(512,4 1 1   0  .996800.     49.2282006.151     0.      0.       10.5    0.    0.      0.      .15000000.       0   
  68 »ÝÖÝÕ¾N02M   1 1   0  1.0   0.     .116     1.1445    0.      0.       34.5    0.    0.      0.      0.      0.       0   
  69 cn_200066    1 1   2  1.0   0.     0.       0.        -94.9148.3274    230.0   0.    99900.0 -99900.00.      0.       0   
  70 cn_200622    1 1   2  1.0   0.     0.       0.        -493.849-159.166 525.0   0.    99900.0 -99900.00.      0.       0   
  71 É³½Ç×Ü³§M352 1 1   0  1.0   0.     0.       0.        0.      0.       34.5    0.    0.      0.      0.      0.       0   
  72 virtualPv_Èý 1 1   2  1.0   0.     0.       0.        0.      0.       230.0   0.    99900.0 -99900.00.      0.       0   
  73 ÄÏÉ½Õ¾(653,5 1 1   0  1.00000.     60.14060030.05860000.      0.       10.5    0.    0.      0.      .58176000.       0   
  74 cn_200633    1 1   2  1.0   0.     0.       0.        -1.1346 -6.199   230.0   0.    99900.0 -99900.00.      0.       0   
  75 ¹«Ã÷Õ¾10KV4A 1 1   0  .989710.     0.       0.        0.      0.       10.5    0.    0.      0.      .64127990.       0   
  76 cn_200983    1 1   2  1.0   0.     0.       0.        2568.865-484.507 525.0   0.    99900.0 -99900.00.      0.       0   
  77 Ïã¸ÛÕ¾(669,5 1 1   2  1.0   0.     0.       0.        19.9801 -16.2732 115.0   0.    99900.0 -99900.00.      0.       0   
  78 º£ÌìÕ¾(921,3 1 1   0  .995910.     0.       0.        0.      0.       115.0   0.    0.      0.      0.      0.       0   
  79 ÆºÉ½Õ¾(842,4 1 1   0  1.0   0.     0.       0.        0.      0.       10.5    0.    0.      0.      0.      0.       0   
  80 »ÝÖÝÕ¾N01H   1 1   0  1.0   0.     390.0575 59.73149990.      0.       230.0   0.    0.      0.      0.      0.       0   
  81 ´´ÐÂÕ¾(904,4 1 1   0  .994010.     0.       0.        0.      0.       115.0   0.    0.      0.      0.      0.       0   
  82 ÁúÌÁÕ¾(1054, 1 1   0  1.0   0.     0.       0.        0.      0.       10.5    0.    0.      0.      .16031990.       0   
  83 virtualPv_¾° 1 1   2  1.0   0.     0.       0.        0.      0.       230.0   0.    99900.0 -99900.00.      0.       0   
  84 ÇåÁÖÕ¾(905,3 1 1   0  .977080.     0.       0.        0.      0.       115.0   0.    0.      0.      0.      0.       0   
  85 Ïã¸ÛÕ¾(538,5 1 1   0  1.0   0.     0.       0.        0.      0.       115.0   0.    0.      0.      0.      0.       0   
  86 Ïã¸ÛÕ¾(242,6 1 1   2  1.0   0.     0.       0.        21.0106 -35.3204 115.0   0.    99900.0 -99900.00.      0.       0   
  87 ÑÅÔ·Õ¾(318,3 1 1   0  .992490.     0.       0.        0.      0.       115.0   0.    0.      0.      0.      0.       0   
  88 Bus_97       1 1   0  1.0   0.     0.       0.        0.      0.       0.      0.    0.      0.      0.      0.       0   
  89 ¼òÁúÕ¾(322,2 1 1   0  .999920.     0.       0.        0.      0.       230.0   0.    0.      0.      0.      0.       0   
  90 ÀîÀÊÕ¾(538,6 1 1   0  .975420.     0.       0.        0.      0.       115.0   0.    0.      0.      0.      0.       0   
  91 Åô³ÇÕ¾(214,1 1 1   0  1.00110.     0.       0.        0.      0.       525.0   0.    0.      0.      0.      0.       0   
  92 ÏóÉ½Õ¾(971,3 1 1   0  1.0   0.     0.       0.        0.      0.       10.5    0.    0.      0.      0.      0.       0   
  93 É³¾®Õ¾(344,6 1 1   0  .973660.     31.76650012.006    0.      0.       10.5    0.    0.      0.      0.0960000.       0   
  94 Ë®ÌïÕ¾(309,4 1 1   0  .945230.     0.       0.        0.      0.       115.0   0.    0.      0.      0.      0.       0   
  95 º½³ÇÕ¾(428,2 1 1   0  .974500.     0.       0.        0.      0.       115.0   0.    0.      0.      0.      0.       0   
  96 Bus_105      1 1   0  1.0   0.     0.       0.        0.      0.       0.      0.    0.      0.      0.      0.       0   
  97 Á«ÌÁÕ¾(746,2 1 1   0  1.0   0.     0.       0.        0.      0.       115.0   0.    0.      0.      0.      0.       0   
  98 öïÅôÕ¾(248,2 1 1   0  1.00360.     0.       0.        0.      0.       230.0   0.    0.      0.      0.      0.       0   
  99 »ÝÖÝÕ¾N02Y   1 1   0  1.0   0.     .108     1.1182    0.      0.       34.5    0.    0.      0.      0.      0.       0   
 100 Bus_111      1 1   0  1.0   0.     0.       0.        0.      0.       0.      0.    0.      0.      0.      0.       0   
 101 ÁúÃ·ÉÏT½Óµã( 1 1   0  1.0   0.     0.       0.        0.      0.       115.0   0.    0.      0.      0.      0.       0   
 102 ÀîÀÊÕ¾(490,4 1 1   0  1.0   0.     0.       0.        0.      0.       10.5    0.    0.      0.      0.      0.       0   
 103 Ïã¸ÛÕ¾(650,1 1 1   2  1.0   0.     0.       0.        -166.7697.4245   430.0   0.    99900.0 -99900.00.      0.       0   
 104 Bus_117      1 1   0  1.0   0.     0.       0.        0.      0.       0.      0.    0.      0.      0.      0.       0   
 105 Ã·ÁÖÕ¾(1041, 1 1   0  1.0   0.     0.       0.        0.      0.       10.5    0.    0.      0.      0.      0.       0   
 106 ÆºµØÕ¾(380,2 1 1   0  .964230.     0.       0.        0.      0.       115.0   0.    0.      0.      0.      0.       0   
 107 ÐÂ°²Õ¾10KV2A 1 1   0  .985230.     89.2374  23.9356   0.      0.       10.5    0.    0.      0.      .25     0.       0   
 108 ¼òÁúÕ¾(1040, 1 1   0  1.0   0.     0.       0.        0.      0.       10.5    0.    0.      0.      0.      0.       0   
 109 Îå´åÕ¾(515,2 1 1   0  1.01410.     0.       0.        0.      0.       115.0   0.    0.      0.      0.      0.       0   
 110 ÌïÃæÕ¾10KV2A 1 1   0  .984570.     65.71679928.78870000.      0.       10.5    0.    0.      0.      .3      0.       0   
 111 É³½Ç×Ü³§N02Y 1 1   0  1.0   0.     -839.018828.3597   0.      0.       230.0   0.    0.      0.      0.      0.       0   
 112 ³µ¹«ÃíÕ¾(977 1 1   0  .999750.     0.       0.        0.      0.       115.0   0.    0.      0.      0.      0.       0   
 113 Bus_125      1 1   0  1.0   0.     0.       0.        0.      0.       0.      0.    0.      0.      0.      0.       0   
 114 ¸£ÓÀÕ¾(336,2 1 1   0  .973930.     0.       0.        0.      0.       115.0   0.    0.      0.      0.      0.       0   
 115 Ìïå¼Õ¾10KV3M 1 1   0  1.0   0.     -20.3202 1.814200000.      0.       10.5    0.    0.      0.      .30060000.       0   
 116 cn_200370    1 1   2  1.0   0.     0.       0.        0.      0.       230.0   0.    99900.0 -99900.00.      0.       0   
 117 ¹¤ÒµÇøÕ¾10KV 1 1   0  .959820.     11.9002  11.69029990.      0.       10.5    0.    0.      0.      .2      0.       0   
 118 ´ó·ÒÕ¾(823,2 1 1   0  .994590.     0.       0.        0.      0.       115.0   0.    0.      0.      0.      0.       0   
 119 ¼òÁúÕ¾(1041, 1 1   0  1.0   0.     0.       0.        0.      0.       10.5    0.    0.      0.      0.      0.       0   
 120 º£¾°Õ¾(886,2 1 1   0  .983820.     8.6294   -10.2724990.      0.       10.5    0.    0.      0.      .3      0.       0   
 121 ³µ¹«ÃíÕ¾(111 1 1   0  .978850.     31.6317005.905800000.      0.       10.5    0.    0.      0.      .19200000.       0   
 122 Ë®±´Õ¾(1014, 1 1   0  1.0   0.     0.       0.        0.      0.       10.5    0.    0.      0.      0.      0.       0   
 123 ÁùÔ¼Õ¾(940,1 1 1   0  .980240.     0.       0.        0.      0.       115.0   0.    0.      0.      0.      0.       0   
 124 ÏóÉ½Õ¾(744,3 1 1   0  1.0   0.     0.       0.        0.      0.       10.5    0.    0.      0.      0.      0.       0   
 125 ÄÏÉ½Õ¾(145,2 1 1   0  1.04250.     0.       0.        0.      0.       115.0   0.    0.      0.      0.      0.       0   
 126 ÏóÉ½Õ¾(1026, 1 1   0  1.00310.     42.90530037.0559   0.      0.       10.5    0.    0.      0.      2.4048000.       0   
 127 ¸ÚÍ·Õ¾10KV1M 1 1   0  .972620.     45.0389  16.1144   0.      0.       10.5    0.    0.      0.      .20040000.       0   
 128 ÉÏ´åÕ¾10KV1M 1 1   0  .970220.     47.2382  16.95369990.      0.       10.5    0.    0.      0.      .20040000.       0   
 129 virtualPv_ÖÙ 1 1   2  1.0   0.     0.       0.        0.      0.       230.0   0.    99900.0 -99900.00.      0.       0   
 130 Â½ÁªÕ¾(957,2 1 1   0  .974600.     0.       0.        0.      0.       115.0   0.    0.      0.      0.      0.       0   
 131 ÁúÃ·ÉÏT½Óµã( 1 1   0  1.0   0.     0.       0.        0.      0.       115.0   0.    0.      0.      0.      0.       0   
 132 virtualPv_Ô¾ 1 1   2  1.0   0.     0.       0.        0.      0.       230.0   0.    99900.0 -99900.00.      0.       0   
 133 ¹«Ã÷Õ¾(968,1 1 1   0  1.0   0.     0.       0.        0.      0.       10.5    0.    0.      0.      0.      0.       0   
 134 ±õºÓÕ¾(664,2 1 1   0  1.01340.     0.       0.        0.      0.       230.0   0.    0.      0.      0.      0.       0   
 135 ÂèÍå³§M012   1 1   0  1.0   0.     0.       0.        0.      0.       6.30000 0.    0.      0.      0.      0.       0   
 136 ¾°ÌïÕ¾(559,6 1 1   0  1.00570.     42.82340017.53299990.      0.       10.5    0.    0.      0.      .30060000.       0   
 137 Bus_155      1 1   0  1.0   0.     0.       0.        0.      0.       0.      0.    0.      0.      0.      0.       0   
 138 Bus_156      1 1   0  1.0   0.     0.       0.        0.      0.       0.      0.    0.      0.      0.      0.       0   
 139 ËÉ±±Õ¾(597,5 1 1   0  .966420.     119.9275953.17160000.      0.       10.5    0.    0.      0.      .28800000.       0   
 140 ºá¸ÚÕ¾(906,2 1 1   0  .992860.     0.       0.        0.      0.       115.0   0.    0.      0.      0.      0.       0   
 141 ºìÁëÕ¾110KV3 1 1   0  .977480.     0.       0.        0.      0.       115.0   0.    0.      0.      0.      0.       0   
 142 cn_200482    1 1   2  1.0   0.     0.       0.        -99.0776-166.7   525.0   0.    99900.0 -99900.00.      0.       0   
 143 Bus_163      1 1   0  1.0   0.     0.       0.        0.      0.       0.      0.    0.      0.      0.      0.       0   
 144 virtualPv_ÖÙ 1 1   2  1.0   0.     0.       0.        0.      0.       230.0   0.    99900.0 -99900.00.      0.       0   
 145 Íõ¼ÒÕ¾(943,5 1 1   0  .966800.     84.3179  50.67559990.      0.       10.5    0.    0.      0.      .3      0.       0   
 146 ¹«Ã÷Õ¾(1072, 1 1   0  .994850.     0.       0.        0.      0.       10.5    0.    0.      0.      .48095990.       0   
 147 Æ½°²Õ¾(160,6 1 1   0  .979090.     0.       0.        0.      0.       115.0   0.    0.      0.      0.      0.       0   
 148 É³Í·½ÇÕ¾(337 1 1   0  .978520.     0.       0.        0.      0.       115.0   0.    0.      0.      0.      0.       0   
 149 ËÉ±±Õ¾(895,4 1 1   0  .977990.     0.       0.        0.      0.       115.0   0.    0.      0.      0.      0.       0   
 150 öïÅôÕ¾(276,3 1 1   0  .999290.     0.       0.        0.      0.       34.5    0.    0.      0.      3.6059990.       0   
 151 ÏéºÍÕ¾(730,2 1 1   0  1.01590.     0.       0.        0.      0.       230.0   0.    0.      0.      0.      0.       0   
 152 ½­ÃÅÕ¾N01K   1 1   2  1.0   0.     0.       0.        1460.335-10.2578 525.0   0.    99900.0 -99900.00.      0.       0   
 153 É³½Ç×Ü³§N02B 1 1   2  1.0   0.     0.       0.        315.556484.4795  19.0    0.    99900.0 -99900.00.      0.       0   
 154 Bus_176      1 1   0  1.0   0.     0.       0.        0.      0.       0.      0.    0.      0.      0.      0.       0   
 155 ÆÎÐÄÕ¾N00K   1 1   0  1.0   0.     -207.1765-50.5562  0.      0.       230.0   0.    0.      0.      0.      0.       0   
 156 ¸ÚÏÃÕ¾(466,6 1 1   0  .989710.     42.4304  48.41639990.      0.       10.5    0.    0.      0.      .30060000.       0   
 157 ÀîÀÊÕ¾(1114, 1 1   0  .977310.     12.2592  -10.7712000.      0.       10.5    0.    0.      0.      1.9240790.       0   
 158 ÂèÍå³§M020   1 1   0  1.0   0.     0.       0.        0.      0.       6.30000 0.    0.      0.      0.      0.       0   
 159 virtualPv_¹Å 1 1   2  1.0   0.     0.       0.        0.      0.       230.0   0.    99900.0 -99900.00.      0.       0   
 160 Bus_182      1 1   0  1.0   0.     0.       0.        0.      0.       0.      0.    0.      0.      0.      0.       0   
 161 ´º·çÕ¾(349,5 1 1   0  .976  0.     10.4632  2.5417    0.      0.       10.5    0.    0.      0.      0.0960000.       0   
 162 ¾É»ùÕ¾(532,6 1 1   0  .967420.     91.711   41.0063   0.      0.       10.5    0.    0.      0.      .3      0.       0   
 163 öïÅôÕ¾500kv2 1 1   0  .997540.     0.       0.        0.      0.       525.0   0.    0.      0.      0.      0.       0   
 164 ²¼¼ªÕ¾(1034, 1 1   0  .969140.     68.8042  8.3652    0.      0.       10.5    0.    0.      0.      .26     0.       0   
 165 Bus_187      1 1   0  1.0   0.     0.       0.        0.      0.       0.      0.    0.      0.      0.      0.       0   
 166 Bus_188      1 1   0  1.0   0.     0.       0.        0.      0.       0.      0.    0.      0.      0.      0.       0   
 167 Ë®±´Õ¾(477,2 1 1   0  .994010.     0.       0.        0.      0.       230.0   0.    0.      0.      0.      0.       0   
 168 ÂíÛêÕ¾(751,4 1 1   0  1.0   0.     0.       0.        0.      0.       10.5    0.    0.      0.      0.      0.       0   
 169 Ë®ÌïÕ¾(441,5 1 1   0  .989140.     57.1156  25.3058   0.      0.       10.5    0.    0.      0.      .3      0.       0   
 170 ÂíÛêÕ¾(1034, 1 1   0  1.0   0.     0.       0.        0.      0.       10.5    0.    0.      0.      0.      0.       0   
 171 ÁúÌÁÕ¾(1014, 1 1   0  1.0   0.     0.       0.        0.      0.       10.5    0.    0.      0.      0.      0.       0   
 172 ÐÅÛâÕ¾N00H   1 1   0  1.0   0.     308.0432 61.183    0.      0.       230.0   0.    0.      0.      0.      0.       0   
 173 Áë°ÄºËµçN00W 1 1   2  1.0   0.     0.       0.        968.087299.0909  26.0    0.    99900.0 -99900.00.      0.       0   
 174 Bus_196      1 1   0  1.0   0.     0.       0.        0.      0.       0.      0.    0.      0.      0.      0.       0   
 175 ¹«Ã÷Õ¾(175,4 1 1   0  .981390.     0.       0.        0.      0.       115.0   0.    0.      0.      0.      0.       0   
 176 ÉÏ´åÕ¾(606,3 1 1   0  .981160.     0.       0.        0.      0.       115.0   0.    0.      0.      0.      0.       0   
 177 Í¨ÐÄÁëÕ¾(788 1 1   0  .982690.     18.39540011.7938   0.      0.       10.5    0.    0.      0.      .2      0.       0   
 178 ¶«ºþÕ¾(591,3 1 1   0  1.0   0.     0.       0.        0.      0.       10.5    0.    0.      0.      0.      0.       0   
 179 virtualPv_Ô¾ 1 1   2  1.0   0.     0.       0.        0.      0.       230.0   0.    99900.0 -99900.00.      0.       0   
 180 Bus_202      1 1   0  1.0   0.     0.       0.        0.      0.       0.      0.    0.      0.      0.      0.       0   
 181 ÀîÀÊÕ¾(254,4 1 1   0  1.0   0.     0.       0.        0.      0.       10.5    0.    0.      0.      0.      0.       0   
 182 Åô³ÇÕ¾(1039, 1 1   0  .986200.     0.       0.        0.      0.       34.5    0.    0.      0.      2.4     0.       0   
 183 virtualPv_¿û 1 1   2  1.0   0.     0.       0.        0.      0.       230.0   0.    99900.0 -99900.00.      0.       0   
 184 Ìïå¼Õ¾(471,2 1 1   0  .982990.     0.       0.        0.      0.       115.0   0.    0.      0.      0.      0.       0   
 185 Ä¾¹ÅÕ¾(925,6 1 1   0  .980450.     95.7896  37.91450000.      0.       10.5    0.    0.      0.      .24000000.       0   
 186 virtualPv_¿û 1 1   2  1.0   0.     0.       0.        0.      0.       230.0   0.    99900.0 -99900.00.      0.       0   
 187 virtualPv_ÉÇ 1 1   2  1.0   0.     0.       0.        0.      0.       525.0   0.    99900.0 -99900.00.      0.       0   
 188 Bus_211      1 1   0  1.0   0.     0.       0.        0.      0.       0.      0.    0.      0.      0.      0.       0   
 189 ÂíÛêÕ¾(235,6 1 1   0  .987080.     16.2066  7.014899990.      0.       10.5    0.    0.      0.      2.4048000.       0   
 190 ±¦²ýB³§(725, 1 1   2  1.0   0.     0.       0.        707.423 160.0763 115.0   0.    99900.0 -99900.00.      0.       0   
 191 ·ï»ËÕ¾10KV3M 1 1   0  .957520.     99.266   23.3542   0.      0.       10.5    0.    0.      0.      .3      0.       0   
 192 ÐÂ°ÙÕ¾(905,3 1 1   0  1.00010.     0.       0.        0.      0.       115.0   0.    0.      0.      0.      0.       0   
 193 virtualPv_Õò 1 1   2  1.0   0.     0.       0.        0.      0.       230.0   0.    99900.0 -99900.00.      0.       0   
 194 ÃÀÊÓA³§(845, 1 1   2  1.0   0.     0.       0.        16.5501 14.6253  115.0   0.    99900.0 -99900.00.      0.       0   
 195 ÂèÍå³§N01G   1 1   2  1.0   0.     0.       0.        211.164341.804   22.0    0.    99900.0 -99900.00.      0.       0   
 196 Bus_219      1 1   0  1.0   0.     0.       0.        0.      0.       0.      0.    0.      0.      0.      0.       0   
 197 ÂíÛêÕ¾(942,2 1 1   0  .998950.     0.       0.        0.      0.       230.0   0.    0.      0.      0.      0.       0   
 198 cn_200861    1 1   2  1.0   0.     0.       0.        0.      0.       230.0   0.    99900.0 -99900.00.      0.       0   
 199 ¹ÛÀ½Õ¾(1067, 1 1   0  .999180.     0.       0.        0.      0.       115.0   0.    0.      0.      0.      0.       0   
 200 ÎÄ»¯Õ¾(369,5 1 1   0  1.0   0.     -38.7645 -13.6822  0.      0.       38.0    0.    0.      0.      0.      0.       0   
...
-999
BRANCH DATA FOLLOWS                    1460 ITEMS
401  259  1 1   1 0914933.837914933.83740.        0     0     0     0    0  0.     0.     0.     0.      0.     0.     999.0  
239  255  1 1   1 00.004400000.0199999990.002928000     0     0     0    0  0.     0.     0.     0.      0.     0.     999.0  
53   76   1 1   1 02.267573690.0026802720.        0     0     0     0    0  0.     0.     0.     0.      0.     0.     999.0  
466  396  1 1   1 0914933.837914933.83740.        0     0     0     0    0  0.     0.     0.     0.      0.     0.     999.0  
280  259  1 1   1 0914933.837914933.83740.        0     0     0     0    0  0.     0.     0.     0.      0.     0.     999.0  
74   259  1 1   1 0914933.837914933.83740.        0     0     0     0    0  0.     0.     0.     0.      0.     0.     999.0  
260  296  1 1   1 0914933.837914933.83740.        0     0     0     0    0  0.     0.     0.     0.      0.     0.     999.0  
198  243  1 1   1 06.404537100.0057640830.019235990     0     0     0    0  0.     0.     0.     0.      0.     0.     999.0  
459  65   1 1   1 00.        .18376417440.        0     0     0     0    0  0.     0.     0.     0.      0.     0.     999.0  
401  12   1 1   1 0914933.837914933.83740.        0     0     0     0    0  0.     0.     0.     0.      0.     0.     999.0  
290  1    1 1   1 0914933.837914933.83740.        0     0     0     0    0  0.     0.     0.     0.      0.     0.     999.0  
175  184  1 1   1 00.        0.         0.        0     0     0     0    0  0.     0.     0.     0.      0.     0.     999.0  
248  125  1 1   1 00.001351980.0062381850.        0     0     0     0    0  0.     0.     0.     0.      0.     0.     999.0  
333  147  1 1   1 00.009476740.0482722100.        0     0     0     0    0  0.     0.     0.     0.      0.     0.     999.0  
290  458  1 1   1 0914933.837914933.83740.        0     0     0     0    0  0.     0.     0.     0.      0.     0.     999.0  
246  108  1 1   1 00.        .18866213540.        0     0     0     0    0  0.     0.     0.     0.      0.     0.     999.0  
271  22   1 1   1 00.        .25505668180.        0     0     0     0    0  0.     0.     0.     0.      0.     0.     999.0  
419  189  1 1   1 00.        .10430839190.        0     0     0     0    0  0.     0.     0.     0.      0.     0.     999.0  
360  478  1 1   1 04.310018900.0027069940.        0     0     0     0    0  0.     0.     0.     0.      0.     0.     999.0  
74   296  1 1   1 0914933.837914933.83740.        0     0     0     0    0  0.     0.     0.     0.      0.     0.     999.0  
255  114  1 1   1 00.023904720.0750706960.008701990     0     0     0    0  0.     0.     0.     0.      0.     0.     999.0  
302  125  1 1   1 03.931947150.0018638942.580000080     0     0     0    0  0.     0.     0.     0.      0.     0.     999.0  
259  296  1 1   1 0914933.837914933.83740.        0     0     0     0    0  0.     0.     0.     0.      0.     0.     999.0  
280  402  1 1   1 0914933.837914933.83740.        0     0     0     0    0  0.     0.     0.     0.      0.     0.     999.0  
415  337  1 1   1 0914933.837914933.83740.        0     0     0     0    0  0.     0.     0.     0.      0.     0.     999.0  
396  116  1 1   1 00.        0.0015000000.        0     0     0     0    0  0.     0.     0.     0.      0.     0.     999.0  
112  393  1 1   1 01.890359190.0057466910.        0     0     0     0    0  0.     0.     0.     0.      0.     0.     999.0  
84   391  1 1   1 00.001890350.0052166350.004027990     0     0     0    0  0.     0.     0.     0.      0.     0.     999.0  
472  426  1 1   1 00.002744040.0139727790.        0     0     0     0    0  0.     0.     0.     0.      0.     0.     999.0  
81   78   1 1   1 00.001351980.0050941390.        0     0     0     0    0  0.     0.     0.     0.      0.     0.     999.0  
402  422  1 1   1 0914933.837914933.83740.        0     0     0     0    0  0.     0.     0.     0.      0.     0.     999.0  
192  16   1 1   1 00.004142150.0218109640.        0     0     0     0    0  0.     0.     0.     0.      0.     0.     999.0  
1    116  1 1   1 0914933.837914933.83740.        0     0     0     0    0  0.     0.     0.     0.      0.     0.     999.0  
74   442  1 1   1 01.829867660.0011894130.004153000     0     0     0    0  0.     0.     0.     0.      0.     0.     999.0  
333  217  1 1   1 00.004949710.0251599240.        0     0     0     0    0  0.     0.     0.     0.      0.     0.     999.0  
299  132  1 1   1 00.        914933.83740.        0     0     0     0    0  0.     0.     0.     0.      0.     0.     999.0  
301  116  1 1   1 0914933.837914933.83740.        0     0     0     0    0  0.     0.     0.     0.      0.     0.     999.0  
41   405  1 1   1 00.001361050.0086200370.        0     0     0     0    0  0.     0.     0.     0.      0.     0.     999.0  
260  379  1 1   1 0914933.837914933.83740.        0     0     0     0    0  0.     0.     0.     0.      0.     0.     999.0  
362  322  1 1   1 00.001705100.0076937620.        0     0     0     0    0  0.     0.     0.     0.      0.     0.     999.0  
119  246  1 1   1 00.        .18866213540.        0     0     0     0    0  0.     0.     0.     0.      0.     0.     999.0  
393  363  1 1   1 00.001913040.0027523620.        0     0     0     0    0  0.     0.     0.     0.      0.     0.     999.0  
382  246  1 1   1 00.        .18866213540.        0     0     0     0    0  0.     0.     0.     0.      0.     0.     999.0  
20   151  1 1   1 04.669187030.0060300560.        0     0     0     0    0  0.     0.     0.     0.      0.     0.     999.0  
280  10   1 1   1 0914933.837914933.83740.        0     0     0     0    0  0.     0.     0.     0.      0.     0.     999.0  
243  111  1 1   1 00.001738370.0083258970.027105990     0     0     0    0  0.     0.     0.     0.      0.     0.     999.0  
422  10   1 1   1 0914933.837914933.83740.        0     0     0     0    0  0.     0.     0.     0.      0.     0.     999.0  
296  458  1 1   1 0914933.837914933.83740.        0     0     0     0    0  0.     0.     0.     0.      0.     0.     999.0  
255  236  1 1   1 00.002639690.0123402640.        0     0     0     0    0  0.     0.     0.     0.      0.     0.     999.0  
458  415  1 1   1 0914933.837914933.83740.        0     0     0     0    0  0.     0.     0.     0.      0.     0.     999.0  
337  159  1 1   1 00.        914933.83740.        0     0     0     0    0  0.     0.     0.     0.      0.     0.     999.0  
20   151  1 1   2 04.669187030.0060300560.        0     0     0     0    0  0.     0.     0.     0.      0.     0.     999.0  
260  466  1 1   1 0914933.837914933.83740.        0     0     0     0    0  0.     0.     0.     0.      0.     0.     999.0  
301  299  1 1   1 0914933.837914933.83740.        0     0     0     0    0  0.     0.     0.     0.      0.     0.     999.0  
87   52   1 1   1 06.117202150.0017179580.        0     0     0     0    0  0.     0.     0.     0.      0.     0.     999.0  
387  363  1 1   1 00.002267670.0061398860.        0     0     0     0    0  0.     0.     0.     0.      0.     0.     999.0  
157  346  1 1   1 00.        .10430839190.        0     0     0     0    0  0.     0.     0.     0.      0.     0.     999.0  
300  210  1 1   1 03.628117910.004897959.7053790280     0     0     0    0  0.     0.     0.     0.      0.     0.     999.0  
255  15   1 1   1 00.006238180.0322003780.        0     0     0     0    0  0.     0.     0.     0.      0.     0.     999.0  
478  498  1 1   1 00.001134210.0035538750.        0     0     0     0    0  0.     0.     0.     0.      0.     0.     999.0  
10   402  1 1   1 0914933.837914933.83740.        0     0     0     0    0  0.     0.     0.     0.      0.     0.     999.0  
403  284  1 1   1 00.002012850.0141814740.048747000     0     0     0    0  0.     0.     0.     0.      0.     0.     999.0  
402  299  1 1   1 0914933.837914933.83740.        0     0     0     0    0  0.     0.     0.     0.      0.     0.     999.0  
239  405  1 1   1 00.001038940.0051977317.599999750     0     0     0    0  0.     0.     0.     0.      0.     0.     999.0  
445  211  1 1   1 00.        .20907029270.        0     0     0     0    0  0.     0.     0.     0.      0.     0.     999.0  
301  489  1 1   1 0914933.837914933.83740.        0     0     0     0    0  0.     0.     0.     0.      0.     0.     999.0  
424  355  1 1   1 00.002124760.0084688090.        0     0     0     0    0  0.     0.     0.     0.      0.     0.     999.0  
198  10   1 1   1 0914933.837914933.83740.        0     0     0     0    0  0.     0.     0.     0.      0.     0.     999.0  
401  466  1 1   1 0914933.837914933.83740.        0     0     0     0    0  0.     0.     0.     0.      0.     0.     999.0  
400  116  1 1   1 00.        914933.83740.        0     0     0     0    0  0.     0.     0.     0.      0.     0.     999.0  
231  33   1 1   1 00.        .17278912110.        0     0     0     0    0  0.     0.     0.     0.      0.     0.     999.0  
31   301  1 1   1 0914933.837914933.83740.        0     0     0     0    0  0.     0.     0.     0.      0.     0.     999.0  
69   12   1 1   1 0914933.837914933.83740.        0     0     0     0    0  0.     0.     0.     0.      0.     0.     999.0  
280  379  1 1   1 0914933.837914933.83740.        0     0     0     0    0  0.     0.     0.     0.      0.     0.     999.0  
299  422  1 1   1 0914933.837914933.83740.        0     0     0     0    0  0.     0.     0.     0.      0.     0.     999.0  
299  259  1 1   1 0914933.837914933.83740.        0     0     0     0    0  0.     0.     0.     0.      0.     0.     999.0  
31   69   1 1   1 0914933.837914933.83740.        0     0     0     0    0  0.     0.     0.     0.      0.     0.     999.0  
301  296  1 1   1 0914933.837914933.83740.        0     0     0     0    0  0.     0.     0.     0.      0.     0.     999.0  
380  507  1 1   1 00.007416250.0234449900.002937990     0     0     0    0  0.     0.     0.     0.      0.     0.     999.0  
309  21   1 1   1 00.        .21886621470.        0     0     0     0    0  0.     0.     0.     0.      0.     0.     999.0  
216  171  1 1   1 00.        0.0599546490.        0     0     0     0    0  0.     0.     0.     0.      0.     0.     999.0  
123  90   1 1   1 00.006636670.0248612470.        0     0     0     0    0  0.     0.     0.     0.      0.     0.     999.0  
458  280  1 1   1 0914933.837914933.83740.        0     0     0     0    0  0.     0.     0.     0.      0.     0.     999.0  
426  485  1 1   1 00.003429860.0177799610.        0     0     0     0    0  0.     0.     0.     0.      0.     0.     999.0  
428  514  1 1   1 00.        .18031745810.        0     0     0     0    0  0.     0.     0.     0.      0.     0.     999.0  
116  466  1 1   1 0914933.837914933.83740.        0     0     0     0    0  0.     0.     0.     0.      0.     0.     999.0  
290  69   1 1   1 0914933.837914933.83740.        0     0     0     0    0  0.     0.     0.     0.      0.     0.     999.0  
384  106  1 1   1 00.010480150.0318056690.003952000     0     0     0    0  0.     0.     0.     0.      0.     0.     999.0  
410  506  1 1   1 06.240075610.0066540640.        0     0     0     0    0  0.     0.     0.     0.      0.     0.     999.0  
481  355  1 1   1 00.004732700.0132846870.003282000     0     0     0    0  0.     0.     0.     0.      0.     0.     999.0  
401  31   1 1   1 0914933.837914933.83740.        0     0     0     0    0  0.     0.     0.     0.      0.     0.     999.0  
472  426  1 1   2 00.002744040.0139727790.        0     0     0     0    0  0.     0.     0.     0.      0.     0.     999.0  
239  255  1 1   2 00.004400000.0199999990.002081990     0     0     0    0  0.     0.     0.     0.      0.     0.     999.0  
338  426  1 1   1 00.009066910.0469943300.        0     0     0     0    0  0.     0.     0.     0.      0.     0.     999.0  
142  385  1 1   1 0907029.478907029.47840.        0     0     0     0    0  0.     0.     0.     0.      0.     0.     999.0  
116  259  1 1   1 0914933.837914933.83740.        0     0     0     0    0  0.     0.     0.     0.      0.     0.     999.0  
290  415  1 1   1 0914933.837914933.83740.        0     0     0     0    0  0.     0.     0.     0.      0.     0.     999.0  
299  62   1 1   1 09.149338320.0074109630.025576000     0     0     0    0  0.     0.     0.     0.      0.     0.     999.0  
69   466  1 1   1 0914933.837914933.83740.        0     0     0     0    0  0.     0.     0.     0.      0.     0.     999.0  
237  378  1 1   1 00.001489980.0084909260.028854000     0     0     0    0  0.     0.     0.     0.      0.     0.     999.0  
151  468  1 1   1 01.629489580.0021000000.        0     0     0     0    0  0.     0.     0.     0.      0.     0.     999.0  
331  301  1 1   1 00.        .30320491680.        0     0     0     0    0  0.     0.     0.     0.      0.     0.     999.0  
447  284  1 1   1 05.100189170.0058410200.061862000     0     0     0    0  0.     0.     0.     0.      0.     0.     999.0  
10   458  1 1   1 0914933.837914933.83740.        0     0     0     0    0  0.     0.     0.     0.      0.     0.     999.0  
458  198  1 1   1 0914933.837914933.83740.        0     0     0     0    0  0.     0.     0.     0.      0.     0.     999.0  
402  259  1 1   1 0914933.837914933.83740.        0     0     0     0    0  0.     0.     0.     0.      0.     0.     999.0  
337  1    1 1   1 0914933.837914933.83740.        0     0     0     0    0  0.     0.     0.     0.      0.     0.     999.0  
466  74   1 1   1 0914933.837914933.83740.        0     0     0     0    0  0.     0.     0.     0.      0.     0.     999.0  
75   245  1 1   1 00.        .17287981210.        0     0     0     0    0  0.     0.     0.     0.      0.     0.     999.0  
402  301  1 1   1 0914933.837914933.83740.        0     0     0     0    0  0.     0.     0.     0.      0.     0.     999.0  
396  415  1 1   1 0914933.837914933.83740.        0     0     0     0    0  0.     0.     0.     0.      0.     0.     999.0  
238  364  1 1   1 00.002545930.0130941390.001547990     0     0     0    0  0.     0.     0.     0.      0.     0.     999.0  
402  290  1 1   1 0914933.837914933.83740.        0     0     0     0    0  0.     0.     0.     0.      0.     0.     999.0  
512  273  1 1   1 00.        0.0800000020.        0     0     0     0    0  0.     0.     0.     0.      0.     0.     999.0  
74   396  1 1   1 0914933.837914933.83740.        0     0     0     0    0  0.     0.     0.     0.      0.     0.     999.0  
290  396  1 1   1 0914933.837914933.83740.        0     0     0     0    0  0.     0.     0.     0.      0.     0.     999.0  
296  402  1 1   1 0914933.837914933.83740.        0     0     0     0    0  0.     0.     0.     0.      0.     0.     999.0  
33   24   1 1   1 00.        .17278912110.        0     0     0     0    0  0.     0.     0.     0.      0.     0.     999.0  
74   290  1 1   1 0914933.837914933.83740.        0     0     0     0    0  0.     0.     0.     0.      0.     0.     999.0  
422  280  1 1   1 0914933.837914933.83740.        0     0     0     0    0  0.     0.     0.     0.      0.     0.     999.0  
436  57   1 1   1 00.001662750.0024952740.        0     0     0     0    0  0.     0.     0.     0.      0.     0.     999.0  
69   74   1 1   1 0914933.837914933.83740.        0     0     0     0    0  0.     0.     0.     0.      0.     0.     999.0  
385  152  1 1   1 0907029.478907029.47840.        0     0     0     0    0  0.     0.     0.     0.      0.     0.     999.0  
273  211  1 1   1 00.        .20907029270.        0     0     0     0    0  0.     0.     0.     0.      0.     0.     999.0  
422  466  1 1   1 0914933.837914933.83740.        0     0     0     0    0  0.     0.     0.     0.      0.     0.     999.0  
422  401  1 1   1 0914933.837914933.83740.        0     0     0     0    0  0.     0.     0.     0.      0.     0.     999.0  
401  379  1 1   1 00.        0.0015000000.        0     0     0     0    0  0.     0.     0.     0.      0.     0.     999.0  
116  296  1 1   1 0914933.837914933.83740.        0     0     0     0    0  0.     0.     0.     0.      0.     0.     999.0  
277  457  1 1   1 00.        .21886621470.        0     0     0     0    0  0.     0.     0.     0.      0.     0.     999.0  
203  305  1 1   1 02.848072650.004393650.5457369990     0     0     0    0  0.     0.     0.     0.      0.     0.     999.0  
296  12   1 1   1 0914933.837914933.83740.        0     0     0     0    0  0.     0.     0.     0.      0.     0.     999.0  
44   288  1 1   1 00.        .21886621470.        0     0     0     0    0  0.     0.     0.     0.      0.     0.     999.0  
299  296  1 1   1 0914933.837914933.83740.        0     0     0     0    0  0.     0.     0.     0.      0.     0.     999.0  
112  363  1 1   1 00.002797730.0050510390.        0     0     0     0    0  0.     0.     0.     0.      0.     0.     999.0  
401  10   1 1   1 0914933.837914933.83740.        0     0     0     0    0  0.     0.     0.     0.      0.     0.     999.0  
379  402  1 1   1 0914933.837914933.83740.        0     0     0     0    0  0.     0.     0.     0.      0.     0.     999.0  
86   437  1 1   1 00.00999999.10000000280.08      0     0     0     0    0  0.     0.     0.     0.      0.     0.     999.0  
12   116  1 1   1 0914933.837914933.83740.        0     0     0     0    0  0.     0.     0.     0.      0.     0.     999.0  
85   77   1 1   1 00.001999990.0599999990.        0     0     0     0    0  0.     0.     0.     0.      0.     0.     999.0  
239  7    1 1   1 00.001670320.0079130430.001099990     0     0     0    0  0.     0.     0.     0.      0.     0.     999.0  
337  402  1 1   1 0914933.837914933.83740.        0     0     0     0    0  0.     0.     0.     0.      0.     0.     999.0  
290  204  1 1   1 00.        914933.83740.        0     0     0     0    0  0.     0.     0.     0.      0.     0.     999.0  
126  220  1 1   1 00.        .18476191020.        0     0     0     0    0  0.     0.     0.     0.      0.     0.     999.0  
157  181  1 1   1 00.        .10430839190.        0     0     0     0    0  0.     0.     0.     0.      0.     0.     999.0  
53   70   1 1   1 00.01495629.11705800020.        0     0     0     0    0  0.     0.     0.     0.      0.     0.     999.0  
301  260  1 1   1 0914933.837914933.83740.        0     0     0     0    0  0.     0.     0.     0.      0.     0.     999.0  
12   415  1 1   1 0914933.837914933.83740.        0     0     0     0    0  0.     0.     0.     0.      0.     0.     999.0  
152  53   1 1   1 07.425668930.0125071010.        0     0     0     0    0  0.     0.     0.     0.      0.     0.     999.0  
125  218  1 1   1 05.988657810.0027871454.019999870     0     0     0    0  0.     0.     0.     0.      0.     0.     999.0  
396  401  1 1   1 0914933.837914933.83740.        0     0     0     0    0  0.     0.     0.     0.      0.     0.     999.0  
496  407  1 1   1 00.009357270.0489701300.        0     0     0     0    0  0.     0.     0.     0.      0.     0.     999.0  
75   201  1 1   1 00.        .17287981210.        0     0     0     0    0  0.     0.     0.     0.      0.     0.     999.0  
31   402  1 1   1 0914933.837914933.83740.        0     0     0     0    0  0.     0.     0.     0.      0.     0.     999.0  
209  142  1 1   1 00.        0.0015000090.        0     0     0     0    0  0.     0.     0.     0.      0.     0.     999.0  
123  140  1 1   1 00.002078630.0103969750.        0     0     0     0    0  0.     0.     0.     0.      0.     0.     999.0  
101  58   1 1   1 00.003587140.0184786380.002166000     0     0     0    0  0.     0.     0.     0.      0.     0.     999.0  
489  280  1 1   1 0914933.837914933.83740.        0     0     0     0    0  0.     0.     0.     0.      0.     0.     999.0  
379  396  1 1   1 0914933.837914933.83740.        0     0     0     0    0  0.     0.     0.     0.      0.     0.     999.0  
74   31   1 1   1 0914933.837914933.83740.        0     0     0     0    0  0.     0.     0.     0.      0.     0.     999.0  
116  31   1 1   1 0914933.837914933.83740.        0     0     0     0    0  0.     0.     0.     0.      0.     0.     999.0  
70   300  1 1   1 0907029.478907029.47840.        0     0     0     0    0  0.     0.     0.     0.      0.     0.     999.0  
396  337  1 1   1 0914933.837914933.83740.        0     0     0     0    0  0.     0.     0.     0.      0.     0.     999.0  
322  340  1 1   1 00.004132320.0227470700.003486000     0     0     0    0  0.     0.     0.     0.      0.     0.     999.0  
101  221  1 1   1 00.004112660.0198207930.002664000     0     0     0    0  0.     0.     0.     0.      0.     0.     999.0  
423  468  1 1   1 00.001644990.0042839320.015737990     0     0     0    0  0.     0.     0.     0.      0.     0.     999.0  
411  87   1 1   1 00.002526270.0098903580.        0     0     0     0    0  0.     0.     0.     0.      0.     0.     999.0  
466  290  1 1   1 0914933.837914933.83740.        0     0     0     0    0  0.     0.     0.     0.      0.     0.     999.0  
489  260  1 1   1 0914933.837914933.83740.        0     0     0     0    0  0.     0.     0.     0.      0.     0.     999.0  
152  300  1 1   1 0907029.478907029.47840.        0     0     0     0    0  0.     0.     0.     0.      0.     0.     999.0  
301  290  1 1   1 0914933.837914933.83740.        0     0     0     0    0  0.     0.     0.     0.      0.     0.     999.0  
62   47   1 1   1 00.003751220.0097897920.034756990     0     0     0    0  0.     0.     0.     0.      0.     0.     999.0  
116  80   1 1   1 00.001372400.0086918710.028854990     0     0     0    0  0.     0.     0.     0.      0.     0.     999.0  
112  226  1 1   1 00.002540640.0125179580.001607990     0     0     0    0  0.     0.     0.     0.      0.     0.     999.0  
423  134  1 1   1 02.090737279.860113572.1147399990     0     0     0    0  0.     0.     0.     0.      0.     0.     999.0  
296  47   1 1   1 00.001555380.0086918710.028854990     0     0     0    0  0.     0.     0.     0.      0.     0.     999.0  
402  489  1 1   1 0914933.837914933.83740.        0     0     0     0    0  0.     0.     0.     0.      0.     0.     999.0  
190  452  1 1   1 00.003639310.0181950850.        0     0     0     0    0  0.     0.     0.     0.      0.     0.     999.0  
365  19   1 1   1 00.001200000.0056400750.        0     0     0     0    0  0.     0.     0.     0.      0.     0.     999.0  
336  163  1 1   1 04.172335510.005886621.7033950040     0     0     0    0  0.     0.     0.     0.      0.     0.     999.0  
379  415  1 1   1 0914933.837914933.83740.        0     0     0     0    0  0.     0.     0.     0.      0.     0.     999.0  
86   57   1 1   1 00.00600000.1000000028.2        0     0     0     0    0  0.     0.     0.     0.      0.     0.     999.0  
501  30   1 1   1 00.002197350.0103773160.001451990     0     0     0    0  0.     0.     0.     0.      0.     0.     999.0  
190  461  1 1   1 00.004019650.0167727780.        0     0     0     0    0  0.     0.     0.     0.      0.     0.     999.0  
125  218  1 1   2 05.988657810.0027871454.019999870     0     0     0    0  0.     0.     0.     0.      0.     0.     999.0  
203  163  1 1   1 02.811791290.003963718.4729729840     0     0     0    0  0.     0.     0.     0.      0.     0.     999.0  
12   489  1 1   1 0914933.837914933.83740.        0     0     0     0    0  0.     0.     0.     0.      0.     0.     999.0  
78   147  1 1   1 00.009357270.0308801510.        0     0     0     0    0  0.     0.     0.     0.      0.     0.     999.0  
147  95   1 1   1 00.002390170.0121761810.        0     0     0     0    0  0.     0.     0.     0.      0.     0.     999.0  
447  410  1 1   1 00.001279960.0147640830.050714000     0     0     0    0  0.     0.     0.     0.      0.     0.     999.0  
422  12   1 1   1 0914933.837914933.83740.        0     0     0     0    0  0.     0.     0.     0.      0.     0.     999.0  
131  226  1 1   1 00.001794320.0092438560.001084000     0     0     0    0  0.     0.     0.     0.      0.     0.     999.0  
84   106  1 1   1 00.007277880.0387810950.        0     0     0     0    0  0.     0.     0.     0.      0.     0.     999.0  
395  197  1 1   1 04.850661480.0062379960.032790000     0     0     0    0  0.     0.     0.     0.      0.     0.     999.0  
70   282  1 1   1 06.349206340.009433106.9959980010     0     0     0    0  0.     0.     0.     0.      0.     0.     999.0  
76   385  1 1   1 0907029.478907029.47840.        0     0     0     0    0  0.     0.     0.     0.      0.     0.     999.0  
76   70   1 1   1 0907029.478907029.47840.        0     0     0     0    0  0.     0.     0.     0.      0.     0.     999.0  
167  468  1 1   1 00.002609070.0124759920.018143990     0     0     0    0  0.     0.     0.     0.      0.     0.     999.0  
126  124  1 1   1 00.        .18476191020.        0     0     0     0    0  0.     0.     0.     0.      0.     0.     999.0  
116  401  1 1   1 0914933.837914933.83740.        0     0     0     0    0  0.     0.     0.     0.      0.     0.     999.0  
402  116  1 1   1 0914933.837914933.83740.        0     0     0     0    0  0.     0.     0.     0.      0.     0.     999.0  
...
-999
LOSS ZONES FOLLOWS   0 ITEMS
-99
INTERCHANGE DATA FOLLOWS      0 ITEMS
-9
TIE LINES FOLLOWS             0ITEMS
-999
END OF DATA